Circuit: * C:\Users\qitia\Desktop\Qi UWaterloo\Projects\dc-dc\DC_DC converter\LT1083 LDO.asc

Direct Newton iteration for .op point succeeded.

Date: Mon Sep 26 14:15:12 2022
Total elapsed time: 0.077 seconds.

tnom = 27
temp = 27
method = modified trap
totiter = 2173
traniter = 2150
tranpoints = 1059
accept = 1054
rejected = 5
matrix size = 11
fillins = 4
solver = Normal
Matrix Compiler1: 1.19 KB object code size  0.4/0.2/[0.2]
Matrix Compiler2: 1.10 KB object code size  0.2/0.2/[0.2]

