Circuit: * C:\Users\qitia\Desktop\Qi UWaterloo\Projects\dc-dc\DC_DC converter\LT1083 LDO.asc

Direct Newton iteration for .op point succeeded.

Date: Wed Sep 28 15:39:28 2022
Total elapsed time: 0.106 seconds.

tnom = 27
temp = 27
method = modified trap
totiter = 2225
traniter = 2214
tranpoints = 1075
accept = 1068
rejected = 7
matrix size = 12
fillins = 4
solver = Normal
Matrix Compiler1: 1.49 KB object code size  0.3/0.2/[0.1]
Matrix Compiler2: 1.14 KB object code size  0.2/0.2/[0.1]

