Circuit: * C:\Users\qitia\Desktop\Qi UWaterloo\Projects\dc-dc\DC_DC converter\LT1083 LDO.asc

Direct Newton iteration for .op point succeeded.

Date: Mon Sep 26 19:57:01 2022
Total elapsed time: 0.072 seconds.

tnom = 27
temp = 27
method = modified trap
totiter = 2225
traniter = 2214
tranpoints = 1075
accept = 1068
rejected = 7
matrix size = 12
fillins = 4
solver = Normal
Matrix Compiler1:      82 opcodes  0.3/[0.1]/0.1
Matrix Compiler2: off  [0.1]/0.1/0.1

